Circuit: * C:\Kicad\Brake_Switch\BrakeSwitch\TestSim.asc

Direct Newton iteration for .op point succeeded.

Date: Tue Mar 17 21:19:28 2026
Total elapsed time: 0.808 seconds.

tnom = 27
temp = 27
method = modified trap
totiter = 38668
traniter = 38657
tranpoints = 9129
accept = 7053
rejected = 2076
matrix size = 87
fillins = 45
solver = Normal
Avg thread counts: 1.2/1.7/1.3/1.2
Matrix Compiler1: 3.52 KB object code size  2.0/1.3/[0.7]
Matrix Compiler2: 6.34 KB object code size  1.5/1.4/[0.8]

